J8B
  CCTOOLS-0919241036

 34 45  0  0  0  0  0  0  0  0999 V2000
   44.8100   36.3010   33.4360 O   0  0  0  0  0
   45.2190   35.0690   32.1050 Mo  0  0  0  0  0
   44.2980   35.6530   30.6330 O   0  0  0  0  0
   43.9320   32.1470   31.5510 Mo  0  0  0  0  0
   46.9960   35.5160   31.4790 O   0  0  0  0  0
   48.3800   35.3750   32.9360 Mo  0  0  0  0  0
   46.8000   34.0480   33.4290 O   0  0  0  0  0
   47.0540   32.2160   32.9590 Mo  0  0  0  0  0
   45.8750   33.2680   31.2370 O   0  0  0  0  0
   44.9910   29.2520   29.4610 Mo  0  0  0  0  0
   42.9660   32.7420   30.2450 O   0  0  0  0  0
   49.7290   32.2120   31.0500 Mo  0  0  0  0  0
   45.2960   31.5000   33.0880 O   0  0  0  0  0
   48.3950   29.2930   30.1190 Mo  0  0  0  0  0
   42.9030   30.9620   32.2980 O   0  0  0  0  0
   46.5980   32.2070   29.5480 Mo  0  0  0  0  0
   49.5990   36.2030   31.7310 O   0  0  0  0  0
   47.7750   31.0820   31.3310 O   0  0  0  0  0
   48.0460   31.5560   34.3270 O   0  0  0  0  0
   43.6900   28.6240   30.4780 O   0  0  0  0  0
   46.5050   28.7990   30.5940 O   0  0  0  0  0
   44.0110   30.4300   28.2370 O   0  0  0  0  0
   46.8570   30.3950   28.9650 O   0  0  0  0  0
   49.8140   30.6650   29.7740 O   0  0  0  0  0
   50.9090   33.3890   30.3680 O   0  0  0  0  0
   50.6160   31.3880   32.4600 O   0  0  0  0  0
   48.3260   33.0130   29.5170 O   0  0  0  0  0
   49.0250   28.6030   31.6400 O   0  0  0  0  0
   45.6180   32.8440   28.2400 O   0  0  0  0  0
   48.9050   28.2400   28.6520 O   0  0  0  0  0
   43.9860   33.7030   32.6990 O   0  0  0  0  0
   45.2540   30.9660   30.6680 O   0  0  0  0  0
   48.4750   33.4980   31.8790 O   0  0  0  0  0
   47.8760   36.7430   33.9280 O   0  0  0  0  0
  1  2  1  0  0  0
  2  3  1  0  0  0
  2  5  1  0  0  0
  2  7  1  0  0  0
  2  9  1  0  0  0
  2 31  1  0  0  0
  4  9  1  0  0  0
  4 11  1  0  0  0
  4 13  1  0  0  0
  4 15  1  0  0  0
  4 31  1  0  0  0
  4 32  1  0  0  0
  5  6  1  0  0  0
  6  7  1  0  0  0
  6 17  1  0  0  0
  6 33  1  0  0  0
  6 34  1  0  0  0
  7  8  1  0  0  0
  8  9  1  0  0  0
  8 13  1  0  0  0
  8 18  1  0  0  0
  8 19  1  0  0  0
  8 33  1  0  0  0
  9 16  1  0  0  0
 10 20  1  0  0  0
 10 21  1  0  0  0
 10 22  1  0  0  0
 10 23  1  0  0  0
 10 32  1  0  0  0
 12 18  1  0  0  0
 12 24  1  0  0  0
 12 25  1  0  0  0
 12 26  1  0  0  0
 12 27  1  0  0  0
 12 33  1  0  0  0
 14 18  1  0  0  0
 14 21  1  0  0  0
 14 23  1  0  0  0
 14 24  1  0  0  0
 14 28  1  0  0  0
 14 30  1  0  0  0
 16 23  1  0  0  0
 16 27  1  0  0  0
 16 29  1  0  0  0
 16 32  1  0  0  0
M  END
$$$$

