SRM
  CCTOOLS-1004241121

107114  0  0  1  0  0  0  0  0999 V2000
   14.5140   42.7470   25.6760 Fe  0  0  0  0  0
   15.2300   39.4330   25.7920 C   0  0  0  0  0
   15.7840   42.8630   22.4410 C   0  0  0  0  0
   13.7750   46.0200   25.5020 C   0  0  0  0  0
   11.9180   42.2740   27.8780 C   0  0  0  0  0
   15.5110   41.3990   24.3770 N   0  0  0  0  0
   15.7950   40.0820   24.7010 C   0  0  0  0  0
   16.7790   39.5220   23.6630 C   0  0  0  0  0
   18.1660   39.8670   24.2680 C   0  0  0  0  0
   16.5780   38.0010   23.2970 C   0  0  0  0  0
   17.3900   36.9810   24.0960 C   0  0  0  0  0
   17.2710   36.9460   25.3410 O   0  0  0  0  0
   18.1600   36.2080   23.4860 O   0  0  0  0  0
   16.3850   40.3440   22.4480 C   0  0  0  0  0
   17.4630   40.5190   21.4400 C   0  0  0  0  0
   16.9500   40.6600   20.0140 C   0  0  0  0  0
   18.0680   40.9410   19.0180 C   0  0  0  0  0
   18.4120   40.0450   18.2100 O   0  0  0  0  0
   18.5990   42.0720   19.0260 O   0  0  0  0  0
   15.9360   41.6520   23.1000 C   0  0  0  0  0
   14.8030   44.1850   24.2150 N   0  0  0  0  0
   15.2810   44.0460   22.9430 C   0  0  0  0  0
   15.4260   45.4110   22.2640 C   0  0  0  0  0
   16.7290   45.4790   21.3530 C   0  0  0  0  0
   14.1440   45.6710   21.5020 C   0  0  0  0  0
   14.1150   46.8260   20.5210 C   0  0  0  0  0
   13.6510   46.6070   19.3860 O   0  0  0  0  0
   14.5390   47.9440   20.8800 O   0  0  0  0  0
   15.4410   46.3280   23.4970 C   0  0  0  0  0
   16.8700   46.4160   24.0530 C   0  0  0  0  0
   16.9120   47.3790   25.2350 C   0  0  0  0  0
   18.3060   47.4980   25.8500 C   0  0  0  0  0
   19.1640   48.1990   25.2730 O   0  0  0  0  0
   18.5440   46.8840   26.9150 O   0  0  0  0  0
   14.5600   45.5280   24.4700 C   0  0  0  0  0
   13.0540   43.9550   26.5820 N   0  0  0  0  0
   13.0360   45.3070   26.4490 C   0  0  0  0  0
   11.8160   45.7440   27.0840 C   0  0  0  0  0
   11.3340   47.1830   27.0360 C   0  0  0  0  0
   12.0590   48.1520   27.9510 C   0  0  0  0  0
   12.8940   47.7060   28.7740 O   0  0  0  0  0
   11.8090   49.3730   27.8500 O   0  0  0  0  0
   11.2080   44.6820   27.7030 C   0  0  0  0  0
    9.8410   44.6740   28.3520 C   0  0  0  0  0
    9.7740   45.2810   29.7540 C   0  0  0  0  0
   10.1350   44.2870   30.8500 C   0  0  0  0  0
   11.3220   43.9420   30.9930 O   0  0  0  0  0
    9.2260   43.8610   31.5840 O   0  0  0  0  0
   12.0470   43.5660   27.3960 C   0  0  0  0  0
   13.7960   41.1450   26.7950 N   0  0  0  0  0
   12.7250   41.1610   27.6400 C   0  0  0  0  0
   12.5540   39.8480   28.2300 C   0  0  0  0  0
   11.4750   39.4440   29.2310 C   0  0  0  0  0
   12.0130   39.7020   30.6320 C   0  0  0  0  0
   11.0930   39.2300   31.7420 C   0  0  0  0  0
   11.0050   39.9370   32.7700 O   0  0  0  0  0
   10.4630   38.1570   31.6120 O   0  0  0  0  0
   13.5160   39.0600   27.6140 C   0  0  0  0  0
   13.7430   37.5580   27.7920 C   0  0  0  0  0
   14.5140   37.1820   29.0440 C   0  0  0  0  0
   15.2350   38.0300   29.6040 O   0  0  0  0  0
   14.4100   36.0220   29.4820 O   0  0  0  0  0
   14.3120   39.8740   26.7380 C   0  0  0  0  0
   15.5600   38.4140   25.9280 H   0  0  0  0  0
   16.0980   42.8820   21.4080 H   0  0  0  0  0
   13.7290   47.0960   25.5840 H   0  0  0  0  0
   11.0740   42.1040   28.5300 H   0  0  0  0  0
   18.9590   39.5060   23.5970 H   0  0  0  0  0
   18.2530   40.9570   24.3860 H   0  0  0  0  0
   18.2680   39.3820   25.2500 H   0  0  0  0  0
   15.5140   37.7630   23.4400 H   0  0  0  0  0
   16.8420   37.8770   22.2360 H   0  0  0  0  0
   18.5970   35.6390   24.1090 H   0  0  0  0  0
   18.0330   41.4240   21.6950 H   0  0  0  0  0
   18.1260   39.6430   21.4850 H   0  0  0  0  0
   16.4470   39.7250   19.7260 H   0  0  0  0  0
   16.2290   41.4900   19.9790 H   0  0  0  0  0
   19.2650   42.1150   18.3500 H   0  0  0  0  0
   16.7980   46.4720   20.8840 H   0  0  0  0  0
   17.6200   45.3050   21.9740 H   0  0  0  0  0
   16.6700   44.7080   20.5710 H   0  0  0  0  0
   13.9100   44.7570   20.9370 H   0  0  0  0  0
   13.3540   45.8550   22.2450 H   0  0  0  0  0
   14.4470   48.5630   20.1650 H   0  0  0  0  0
   17.1940   45.4180   24.3840 H   0  0  0  0  0
   17.5460   46.7780   23.2640 H   0  0  0  0  0
   16.5940   48.3740   24.8900 H   0  0  0  0  0
   16.2160   47.0190   26.0070 H   0  0  0  0  0
   19.4420   47.0440   27.1800 H   0  0  0  0  0
   11.4490   47.5430   26.0030 H   0  0  0  0  0
   10.2690   47.1920   27.3110 H   0  0  0  0  0
   12.3370   49.8570   28.4730 H   0  0  0  0  0
    9.1550   45.2400   27.7050 H   0  0  0  0  0
    9.5040   43.6290   28.4190 H   0  0  0  0  0
   10.4750   46.1270   29.8030 H   0  0  0  0  0
    8.7500   45.6420   29.9310 H   0  0  0  0  0
    9.5910   43.2650   32.2270 H   0  0  0  0  0
   10.5670   40.0420   29.0630 H   0  0  0  0  0
   11.2370   38.3760   29.1130 H   0  0  0  0  0
   12.9760   39.1800   30.7350 H   0  0  0  0  0
   12.1690   40.7850   30.7490 H   0  0  0  0  0
    9.9430   37.9980   32.3910 H   0  0  0  0  0
   12.7610   37.0640   27.8320 H   0  0  0  0  0
   14.3030   37.1890   26.9200 H   0  0  0  0  0
   14.9460   35.9280   30.2610 H   0  0  0  0  0
   15.5140   39.8730   21.9690 H   0  0  0  0  0
   15.0200   47.3210   23.2790 H   0  0  0  0  0
  1  6  1  0  0  0
  1 21  1  0  0  0
  1 36  1  0  0  0
  1 50  1  0  0  0
  2  7  2  0  0  0
  2 63  1  0  0  0
  2 64  1  0  0  0
  3 20  1  0  0  0
  3 22  2  0  0  0
  3 65  1  0  0  0
  4 35  1  0  0  0
  4 37  2  0  0  0
  4 66  1  0  0  0
  5 49  2  0  0  0
  5 51  1  0  0  0
  5 67  1  0  0  0
  6  7  1  0  0  0
  6 20  2  0  0  0
  7  8  1  0  0  0
  8  9  1  0  0  0
  8 10  1  0  0  0
  8 14  1  0  0  0
  9 68  1  0  0  0
  9 69  1  0  0  0
  9 70  1  0  0  0
 10 11  1  0  0  0
 10 71  1  0  0  0
 10 72  1  0  0  0
 11 12  2  0  0  0
 11 13  1  0  0  0
 13 73  1  0  0  0
 14 15  1  0  0  0
 14 20  1  0  0  0
 14106  1  0  0  0
 15 16  1  0  0  0
 15 74  1  0  0  0
 15 75  1  0  0  0
 16 17  1  0  0  0
 16 76  1  0  0  0
 16 77  1  0  0  0
 17 18  2  0  0  0
 17 19  1  0  0  0
 19 78  1  0  0  0
 21 22  1  0  0  0
 21 35  2  0  0  0
 22 23  1  0  0  0
 23 24  1  0  0  0
 23 25  1  0  0  0
 23 29  1  0  0  0
 24 79  1  0  0  0
 24 80  1  0  0  0
 24 81  1  0  0  0
 25 26  1  0  0  0
 25 82  1  0  0  0
 25 83  1  0  0  0
 26 27  2  0  0  0
 26 28  1  0  0  0
 28 84  1  0  0  0
 29 30  1  0  0  0
 29 35  1  0  0  0
 29107  1  0  0  0
 30 31  1  0  0  0
 30 85  1  0  0  0
 30 86  1  0  0  0
 31 32  1  0  0  0
 31 87  1  0  0  0
 31 88  1  0  0  0
 32 33  2  0  0  0
 32 34  1  0  0  0
 34 89  1  0  0  0
 36 37  1  0  0  0
 36 49  1  0  0  0
 37 38  1  0  0  0
 38 39  1  0  0  0
 38 43  2  0  0  0
 39 40  1  0  0  0
 39 90  1  0  0  0
 39 91  1  0  0  0
 40 41  2  0  0  0
 40 42  1  0  0  0
 42 92  1  0  0  0
 43 44  1  0  0  0
 43 49  1  0  0  0
 44 45  1  0  0  0
 44 93  1  0  0  0
 44 94  1  0  0  0
 45 46  1  0  0  0
 45 95  1  0  0  0
 45 96  1  0  0  0
 46 47  2  0  0  0
 46 48  1  0  0  0
 48 97  1  0  0  0
 50 51  1  0  0  0
 50 63  1  0  0  0
 51 52  2  0  0  0
 52 53  1  0  0  0
 52 58  1  0  0  0
 53 54  1  0  0  0
 53 98  1  0  0  0
 53 99  1  0  0  0
 54 55  1  0  0  0
 54100  1  0  0  0
 54101  1  0  0  0
 55 56  2  0  0  0
 55 57  1  0  0  0
 57102  1  0  0  0
 58 59  1  0  0  0
 58 63  2  0  0  0
 59 60  1  0  0  0
 59103  1  0  0  0
 59104  1  0  0  0
 60 61  2  0  0  0
 60 62  1  0  0  0
 62105  1  0  0  0
M  END
$$$$
