U7U
  CCTOOLS-0919241037

 59 74  0  0  0  0  0  0  0  0999 V2000
    0.0000    0.0000   -4.5570 C   0  0  0  0  0
    0.0010    0.0000    4.5570 C   0  0  0  0  0
    0.0000   -0.0000   -3.0270 C   0  0  0  0  0
   -0.3130    1.4010   -2.5180 C   0  0  0  0  0
    1.3700   -0.4300   -2.5180 C   0  0  0  0  0
   -1.0560   -0.9730   -2.5180 C   0  0  0  0  0
    0.0010   -0.0010    3.0270 C   0  0  0  0  0
   -1.3700    0.4270    2.5180 C   0  0  0  0  0
    1.0570    0.9710    2.5180 C   0  0  0  0  0
    0.3150   -1.4020    2.5190 C   0  0  0  0  0
    1.0680    0.9790    1.0810 O   0  2  0  0  0
    3.1170   -0.9820    1.1500 O   0  0  0  0  0
    0.4490    4.2050   -1.1840 O   0  5  0  0  0
   -2.1870    3.6210   -1.1810 O   0  5  0  0  0
    3.8670    1.7130    1.1840 O   0  5  0  0  0
    2.0410    3.7040    1.1830 O   0  5  0  0  0
    0.3150   -1.4140    1.0820 O   0  2  0  0  0
   -1.0670   -0.9800   -1.0820 O   0  2  0  0  0
   -4.2290   -0.0830    1.1810 O   0  5  0  0  0
   -2.4100   -2.2060    1.1500 O   0  0  0  0  0
    3.4150   -2.4940   -1.1860 O   0  5  0  0  0
   -1.3820    0.4340    1.0820 O   0  2  0  0  0
    0.7070   -3.1910   -1.1490 O   0  0  0  0  0
   -2.0410   -3.7050   -1.1820 O   0  5  0  0  0
   -3.8670   -1.7110   -1.1880 O   0  5  0  0  0
    2.1890   -3.6190    1.1840 O   0  5  0  0  0
   -0.4530   -4.2040    1.1880 O   0  5  0  0  0
   -0.3140    1.4140   -1.0810 O   0  2  0  0  0
    1.3820   -0.4350   -1.0820 O   0  2  0  0  0
   -3.4160    2.4920    1.1860 O   0  5  0  0  0
   -0.7070    3.1880    1.1530 O   0  0  0  0  0
    4.2280    0.0860   -1.1850 O   0  5  0  0  0
    2.4080    2.2080   -1.1520 O   0  0  0  0  0
   -3.1150    0.9840   -1.1520 O   0  0  0  0  0
    0.0000   -0.0010    0.0000 Mn  0  0  0  0  0
   -1.8710    2.0420    0.0020 Mo  0  0  0  0  0
    2.7040    0.6000   -0.0000 Mo  0  0  0  0  0
    0.8320    2.6420   -0.0010 Mo  0  0  0  0  0
   -2.7040   -0.5990   -0.0020 Mo  0  0  0  0  0
    1.8720   -2.0420   -0.0010 Mo  0  0  0  0  0
   -0.8330   -2.6410    0.0020 Mo  0  0  0  0  0
    0.7560    0.6960   -4.9200 H   0  0  0  0  0
    0.2250   -1.0030   -4.9210 H   0  0  0  0  0
   -0.9800    0.3070   -4.9200 H   0  0  0  0  0
   -0.7550   -0.6960    4.9210 H   0  0  0  0  0
    0.9820   -0.3060    4.9210 H   0  0  0  0  0
   -0.2250    1.0030    4.9200 H   0  0  0  0  0
    0.4410    2.0970   -2.8850 H   0  0  0  0  0
   -1.2940    1.7070   -2.8830 H   0  0  0  0  0
    1.5950   -1.4330   -2.8850 H   0  0  0  0  0
    2.1270    0.2650   -2.8840 H   0  0  0  0  0
   -2.0360   -0.6690   -2.8870 H   0  0  0  0  0
   -0.8300   -1.9760   -2.8830 H   0  0  0  0  0
   -2.1250   -0.2710    2.8820 H   0  0  0  0  0
   -1.5980    1.4280    2.8860 H   0  0  0  0  0
    0.8330    1.9740    2.8830 H   0  0  0  0  0
    2.0380    0.6660    2.8850 H   0  0  0  0  0
    1.2960   -1.7080    2.8830 H   0  0  0  0  0
   -0.4400   -2.0980    2.8870 H   0  0  0  0  0
  1  3  1  0  0  0
  1 42  1  0  0  0
  1 43  1  0  0  0
  1 44  1  0  0  0
  2  7  1  0  0  0
  2 45  1  0  0  0
  2 46  1  0  0  0
  2 47  1  0  0  0
  3  4  1  0  0  0
  3  5  1  0  0  0
  3  6  1  0  0  0
  4 28  1  0  0  0
  4 48  1  0  0  0
  4 49  1  0  0  0
  5 29  1  0  0  0
  5 50  1  0  0  0
  5 51  1  0  0  0
  6 18  1  0  0  0
  6 52  1  0  0  0
  6 53  1  0  0  0
  7  8  1  0  0  0
  7  9  1  0  0  0
  7 10  1  0  0  0
  8 22  1  0  0  0
  8 54  1  0  0  0
  8 55  1  0  0  0
  9 11  1  0  0  0
  9 56  1  0  0  0
  9 57  1  0  0  0
 10 17  1  0  0  0
 10 58  1  0  0  0
 10 59  1  0  0  0
 11 35  1  0  0  0
 11 37  1  0  0  0
 11 38  1  0  0  0
 12 37  1  0  0  0
 12 40  1  0  0  0
 13 38  1  0  0  0
 14 36  1  0  0  0
 15 37  1  0  0  0
 16 38  1  0  0  0
 17 35  1  0  0  0
 17 40  1  0  0  0
 17 41  1  0  0  0
 18 35  1  0  0  0
 18 39  1  0  0  0
 18 41  1  0  0  0
 19 39  1  0  0  0
 20 39  1  0  0  0
 20 41  1  0  0  0
 21 40  1  0  0  0
 22 35  1  0  0  0
 22 36  1  0  0  0
 22 39  1  0  0  0
 23 40  1  0  0  0
 23 41  1  0  0  0
 24 41  1  0  0  0
 25 39  1  0  0  0
 26 40  1  0  0  0
 27 41  1  0  0  0
 28 35  1  0  0  0
 28 36  1  0  0  0
 28 38  1  0  0  0
 29 35  1  0  0  0
 29 37  1  0  0  0
 29 40  1  0  0  0
 30 36  1  0  0  0
 31 36  1  0  0  0
 31 38  1  0  0  0
 32 37  1  0  0  0
 33 37  1  0  0  0
 33 38  1  0  0  0
 34 36  1  0  0  0
 34 39  1  0  0  0
M  CHG  1  11   2
M  CHG  1  13  -1
M  CHG  1  14  -1
M  CHG  1  15  -1
M  CHG  1  16  -1
M  CHG  1  17   2
M  CHG  1  18   2
M  CHG  1  19  -1
M  CHG  1  21  -1
M  CHG  1  22   2
M  CHG  1  24  -1
M  CHG  1  25  -1
M  CHG  1  26  -1
M  CHG  1  27  -1
M  CHG  1  28   2
M  CHG  1  29   2
M  CHG  1  30  -1
M  CHG  1  32  -1
M  END
$$$$

